<routes>
    <vType id="shuttle" vClass="coach"  maxSpeed="8.33" speedFactor="1." speedDev="0.0" />
    <route id="routeshuttleRegular" color="1,1,0" edges="327676501#0 327676501#1 327676501#2 433033617#0 433033617#1 327676613#0 327676613#1 327676613#2 327676516#3 327676516#4 327676516#5 327676516#6 327676682 327676687#0 327676687#1 327676687#2 327676687#3 327676516#1 327676569#0 327676569#1 327676569#2 327676569#3 327676569#4 -433033617#0 327676478#0 327676478#1"/>
    <route id="routeshuttleDeviate1" color="1,1,0" edges="327676501#0 ﻿343493827#0 343493827#1 343493827#2 327676501#2 433033617#0 433033617#1 327676613#0 327676613#1 327676613#2 327676516#3 327676516#4 327676516#5 327676516#6 327676682 327676687#0 327676687#1 327676687#2 327676687#3 327676516#1 327676569#0 327676569#1 327676569#2 327676569#3 327676569#4 -433033617#0 327676478#0 327676478#1"/>
    <flow id="shuttle" type="shuttle" begin="0" end="100" number="3" route="routeshuttleRegular" departLane="best" />
</routes>
